# generated using pymatgen
data_BaZrO3
_symmetry_space_group_name_H-M   'P 1'
_cell_length_a   5.78755800
_cell_length_b   5.78755778
_cell_length_c   14.09708500
_cell_angle_alpha   90.00000000
_cell_angle_beta   90.00000000
_cell_angle_gamma   120.00000126
_symmetry_Int_Tables_number   1
_chemical_formula_structural   BaZrO3
_chemical_formula_sum   'Ba6 Zr6 O18'
_cell_volume   408.93157076
_cell_formula_units_Z   6
loop_
 _symmetry_equiv_pos_site_id
 _symmetry_equiv_pos_as_xyz
  1  'x, y, z'
loop_
 _atom_site_type_symbol
 _atom_site_label
 _atom_site_symmetry_multiplicity
 _atom_site_fract_x
 _atom_site_fract_y
 _atom_site_fract_z
 _atom_site_occupancy
  Ba  Ba0  1  0.66666667  0.33333333  0.59667300  1.0
  Ba  Ba1  1  0.33333333  0.66666667  0.09667300  1.0
  Ba  Ba2  1  0.33333333  0.66666667  0.40332700  1.0
  Ba  Ba3  1  0.66666667  0.33333333  0.90332700  1.0
  Ba  Ba4  1  0.00000000  0.00000000  0.25000000  1.0
  Ba  Ba5  1  0.00000000  0.00000000  0.75000000  1.0
  Zr  Zr6  1  0.66666667  0.33333333  0.34612700  1.0
  Zr  Zr7  1  0.33333333  0.66666667  0.84612700  1.0
  Zr  Zr8  1  0.33333333  0.66666667  0.65387300  1.0
  Zr  Zr9  1  0.66666667  0.33333333  0.15387300  1.0
  Zr  Zr10  1  0.00000000  0.00000000  0.50000000  1.0
  Zr  Zr11  1  0.00000000  0.00000000  0.00000000  1.0
  O  O12  1  0.16527800  0.33055600  0.58056900  1.0
  O  O13  1  0.16527800  0.83472100  0.58056900  1.0
  O  O14  1  0.66944300  0.83472100  0.58056900  1.0
  O  O15  1  0.33055700  0.16527900  0.08056900  1.0
  O  O16  1  0.83472200  0.16527900  0.41943100  1.0
  O  O17  1  0.83472200  0.66944400  0.08056900  1.0
  O  O18  1  0.83472200  0.16527900  0.08056900  1.0
  O  O19  1  0.16527800  0.33055600  0.91943100  1.0
  O  O20  1  0.66944300  0.83472100  0.91943100  1.0
  O  O21  1  0.33055700  0.16527900  0.41943100  1.0
  O  O22  1  0.83472200  0.66944400  0.41943100  1.0
  O  O23  1  0.16527800  0.83472100  0.91943100  1.0
  O  O24  1  0.48207600  0.51792500  0.75000000  1.0
  O  O25  1  0.51792400  0.03584800  0.25000000  1.0
  O  O26  1  0.96415100  0.48207500  0.25000000  1.0
  O  O27  1  0.03584900  0.51792500  0.75000000  1.0
  O  O28  1  0.48207600  0.96415200  0.75000000  1.0
  O  O29  1  0.51792400  0.48207500  0.25000000  1.0
