# generated using pymatgen
data_LiNbO3
_symmetry_space_group_name_H-M   'P 1'
_cell_length_a   5.28484770
_cell_length_b   5.28484770
_cell_length_c   14.53788180
_cell_angle_alpha   90.00000000
_cell_angle_beta   90.00000000
_cell_angle_gamma   120.00000000
_symmetry_Int_Tables_number   1
_chemical_formula_structural   LiNbO3
_chemical_formula_sum   'Li6 Nb6 O18'
_cell_volume   351.63874134
_cell_formula_units_Z   6
loop_
 _symmetry_equiv_pos_site_id
 _symmetry_equiv_pos_as_xyz
  1  'x, y, z'
loop_
 _atom_type_symbol
 _atom_type_oxidation_number
  Li+  1.0
  Nb5+  5.0
  O2-  -2.0
loop_
 _atom_site_type_symbol
 _atom_site_label
 _atom_site_symmetry_multiplicity
 _atom_site_fract_x
 _atom_site_fract_y
 _atom_site_fract_z
 _atom_site_occupancy
  Li+  Li0  1  0.33333333  0.66666667  0.30447667  1
  Li+  Li1  1  0.33333333  0.66666667  0.02885667  1
  Li+  Li2  1  0.00000000  0.00000000  0.63781000  1
  Li+  Li3  1  0.00000000  0.00000000  0.36219000  1
  Li+  Li4  1  0.66666667  0.33333333  0.97114333  1
  Li+  Li5  1  0.66666667  0.33333333  0.69552333  1
  Nb5+  Nb6  1  0.66666667  0.33333333  0.18894233  1
  Nb5+  Nb7  1  0.00000000  0.00000000  0.14439100  1
  Nb5+  Nb8  1  0.33333333  0.66666667  0.52227567  1
  Nb5+  Nb9  1  0.66666667  0.33333333  0.47772433  1
  Nb5+  Nb10  1  0.00000000  0.00000000  0.85560900  1
  Nb5+  Nb11  1  0.33333333  0.66666667  0.81105767  1
  O2-  O12  1  0.95663567  0.30528533  0.08920133  1
  O2-  O13  1  0.69471467  0.65135033  0.08920133  1
  O2-  O14  1  0.34864967  0.04336433  0.08920133  1
  O2-  O15  1  0.71003100  0.02804800  0.24413200  1
  O2-  O16  1  0.97195200  0.68198300  0.24413200  1
  O2-  O17  1  0.31801700  0.28996900  0.24413200  1
  O2-  O18  1  0.62330233  0.63861867  0.42253467  1
  O2-  O19  1  0.36138133  0.98468367  0.42253467  1
  O2-  O20  1  0.01531633  0.37669767  0.42253467  1
  O2-  O21  1  0.37669767  0.36138133  0.57746533  1
  O2-  O22  1  0.63861867  0.01531633  0.57746533  1
  O2-  O23  1  0.98468367  0.62330233  0.57746533  1
  O2-  O24  1  0.28996900  0.97195200  0.75586800  1
  O2-  O25  1  0.02804800  0.31801700  0.75586800  1
  O2-  O26  1  0.68198300  0.71003100  0.75586800  1
  O2-  O27  1  0.04336433  0.69471467  0.91079867  1
  O2-  O28  1  0.30528533  0.34864967  0.91079867  1
  O2-  O29  1  0.65135033  0.95663567  0.91079867  1
